validation/3_bus_ref/3_bus_gpk_gld_cosim/Current_Dump_NR_glm.csv
# Current_Dump_NR_glm.csv run at 2000-09-01 00:00:00 EDT on 12 links
link_name,currA_real,currA_imag,currB_real,currB_imag,currC_real,currC_imag
line_1_2,142.066418,-116.516841,-62.026932,-81.511959,-52.061074,92.235495
line_2_3,73.511631,-63.866422,-66.830302,-18.345821,-62.624007,39.299500
line_2_l1,68.554788,-52.650419,4.803370,-63.166137,10.562933,52.935995
line_3_l2,73.511631,-63.866422,-66.830302,-18.345821,-62.624007,39.299500
